<?xml version="1.0" encoding="UTF-8"?>

<!-- generated on 2024-12-11 16:52:51 by Eclipse SUMO netedit Version v1_21_0+0046-5fccd803077
<neteditConfiguration xmlns:xsi="http://www.w3.org/2001/XMLSchema-instance" xsi:noNamespaceSchemaLocation="http://sumo.dlr.de/xsd/neteditConfiguration.xsd">

    <input>
        <sumo-net-file value="/home/mausumi/sumo/Test/Traffic_design/environment/design.net.xml"/>
    </input>

    <output>
        <output-file value="/home/mausumi/sumo/Test/Traffic_design/environment/design.net.xml"/>
    </output>

    <processing>
        <geometry.min-radius.fix.railways value="false"/>
        <geometry.max-grade.fix value="false"/>
        <offset.disable-normalization value="true"/>
        <lefthand value="0"/>
    </processing>

    <junctions>
        <no-turnarounds value="true"/>
        <junctions.corner-detail value="5"/>
        <junctions.limit-turn-speed value="5.50"/>
        <rectangular-lane-cut value="0"/>
    </junctions>

    <pedestrian>
        <walkingareas value="0"/>
    </pedestrian>

</neteditConfiguration>
-->

<net version="1.20" junctionCornerDetail="5" limitTurnSpeed="5.50" xmlns:xsi="http://www.w3.org/2001/XMLSchema-instance" xsi:noNamespaceSchemaLocation="http://sumo.dlr.de/xsd/net_file.xsd">

    <location netOffset="0.00,0.00" convBoundary="-781.76,-690.30,734.39,741.42" origBoundary="-10000000000.00,-10000000000.00,10000000000.00,10000000000.00" projParameter="!"/>

    <edge id=":J1_0" function="internal">
        <lane id=":J1_0_0" index="0" speed="6.51" length="9.03" shape="21.55,12.83 19.10,13.18 17.34,14.23 16.29,15.98 15.94,18.43"/>
    </edge>
    <edge id=":J1_1" function="internal">
        <lane id=":J1_1_0" index="0" speed="13.89" length="33.60" shape="21.55,12.83 -12.06,12.82"/>
        <lane id=":J1_1_1" index="1" speed="13.89" length="33.60" shape="21.55,9.63 -12.06,9.62"/>
        <lane id=":J1_1_2" index="2" speed="13.89" length="33.60" shape="21.55,6.43 -12.06,6.42"/>
    </edge>
    <edge id=":J1_4" function="internal">
        <lane id=":J1_4_0" index="0" speed="11.36" length="29.68" shape="21.55,3.23 13.50,2.08 7.75,-1.38 4.30,-7.13 3.15,-15.18"/>
    </edge>
    <edge id=":J1_5" function="internal">
        <lane id=":J1_5_0" index="0" speed="6.51" length="9.04" shape="15.95,-15.18 16.30,-12.72 17.35,-10.97 19.11,-9.92 21.56,-9.57"/>
    </edge>
    <edge id=":J1_6" function="internal">
        <lane id=":J1_6_0" index="0" speed="13.89" length="33.61" shape="15.95,-15.18 15.94,18.43"/>
        <lane id=":J1_6_1" index="1" speed="13.89" length="33.61" shape="12.75,-15.18 12.74,18.43"/>
        <lane id=":J1_6_2" index="2" speed="13.89" length="33.61" shape="9.55,-15.18 9.54,18.43"/>
    </edge>
    <edge id=":J1_9" function="internal">
        <lane id=":J1_9_0" index="0" speed="11.36" length="29.68" shape="6.35,-15.18 5.20,-7.13 1.75,-1.38 -4.00,2.07 -12.06,3.22"/>
    </edge>
    <edge id=":J1_10" function="internal">
        <lane id=":J1_10_0" index="0" speed="6.51" length="9.04" shape="-12.06,-9.58 -9.60,-9.93 -7.85,-10.98 -6.80,-12.73 -6.45,-15.18"/>
    </edge>
    <edge id=":J1_11" function="internal">
        <lane id=":J1_11_0" index="0" speed="13.89" length="33.61" shape="-12.06,-9.58 21.56,-9.57"/>
        <lane id=":J1_11_1" index="1" speed="13.89" length="33.61" shape="-12.06,-6.38 21.56,-6.37"/>
        <lane id=":J1_11_2" index="2" speed="13.89" length="33.61" shape="-12.06,-3.18 21.56,-3.17"/>
    </edge>
    <edge id=":J1_14" function="internal">
        <lane id=":J1_14_0" index="0" speed="11.36" length="29.68" shape="-12.06,0.02 -4.00,1.17 1.75,4.62 5.20,10.37 6.34,18.43"/>
    </edge>
    <edge id=":J1_15" function="internal">
        <lane id=":J1_15_0" index="0" speed="6.51" length="9.03" shape="-6.46,18.42 -6.81,15.97 -7.86,14.22 -9.61,13.17 -12.06,12.82"/>
    </edge>
    <edge id=":J1_16" function="internal">
        <lane id=":J1_16_0" index="0" speed="13.89" length="33.60" shape="-6.46,18.42 -6.45,-15.18"/>
        <lane id=":J1_16_1" index="1" speed="13.89" length="33.60" shape="-3.26,18.42 -3.25,-15.18"/>
        <lane id=":J1_16_2" index="2" speed="13.89" length="33.60" shape="-0.06,18.42 -0.05,-15.18"/>
    </edge>
    <edge id=":J1_19" function="internal">
        <lane id=":J1_19_0" index="0" speed="11.36" length="29.68" shape="3.14,18.43 4.30,10.37 7.75,4.62 13.50,1.18 21.55,0.03"/>
    </edge>

    <edge id="-E0" from="J1" to="J0" priority="-1" length="750.00">
        <lane id="-E0_0" index="0" speed="13.89" length="750.00" shape="-12.06,12.82 -781.76,12.85"/>
        <lane id="-E0_1" index="1" speed="13.89" length="750.00" shape="-12.06,9.62 -781.76,9.65"/>
        <lane id="-E0_2" index="2" speed="13.89" length="750.00" shape="-12.06,6.42 -781.76,6.45"/>
        <lane id="-E0_3" index="3" speed="13.89" length="750.00" shape="-12.06,3.22 -781.76,3.25"/>
    </edge>
    <edge id="-E1" from="J2" to="J1" priority="-1" length="750.00">
        <lane id="-E1_0" index="0" speed="13.89" length="750.00" shape="734.38,13.26 21.55,12.83"/>
        <lane id="-E1_1" index="1" speed="13.89" length="750.00" shape="734.39,10.06 21.55,9.63"/>
        <lane id="-E1_2" index="2" speed="13.89" length="750.00" shape="734.39,6.86 21.55,6.43"/>
        <lane id="-E1_3" index="3" speed="13.89" length="750.00" shape="734.39,3.66 21.55,3.23"/>
    </edge>
    <edge id="-E2" from="J3" to="J1" priority="-1" length="750.00">
        <lane id="-E2_0" index="0" speed="13.89" length="750.00" shape="-6.76,741.42 -6.46,18.42"/>
        <lane id="-E2_1" index="1" speed="13.89" length="750.00" shape="-3.56,741.42 -3.26,18.42"/>
        <lane id="-E2_2" index="2" speed="13.89" length="750.00" shape="-0.36,741.42 -0.06,18.42"/>
        <lane id="-E2_3" index="3" speed="13.89" length="750.00" shape="2.84,741.42 3.14,18.43"/>
    </edge>
    <edge id="-E3" from="J4" to="J1" priority="-1" length="750.00">
        <lane id="-E3_0" index="0" speed="13.89" length="750.00" shape="16.04,-690.30 15.95,-15.18"/>
        <lane id="-E3_1" index="1" speed="13.89" length="750.00" shape="12.84,-690.30 12.75,-15.18"/>
        <lane id="-E3_2" index="2" speed="13.89" length="750.00" shape="9.64,-690.30 9.55,-15.18"/>
        <lane id="-E3_3" index="3" speed="13.89" length="750.00" shape="6.44,-690.30 6.35,-15.18"/>
    </edge>
    <edge id="E0" from="J0" to="J1" priority="-1" length="750.00">
        <lane id="E0_0" index="0" speed="13.89" length="750.00" shape="-781.76,-9.55 -12.06,-9.58"/>
        <lane id="E0_1" index="1" speed="13.89" length="750.00" shape="-781.76,-6.35 -12.06,-6.38"/>
        <lane id="E0_2" index="2" speed="13.89" length="750.00" shape="-781.76,-3.15 -12.06,-3.18"/>
        <lane id="E0_3" index="3" speed="13.89" length="750.00" shape="-781.76,0.05 -12.06,0.02"/>
    </edge>
    <edge id="E1" from="J1" to="J2" priority="-1" length="750.00">
        <lane id="E1_0" index="0" speed="13.89" length="750.00" shape="21.56,-9.57 734.40,-9.14"/>
        <lane id="E1_1" index="1" speed="13.89" length="750.00" shape="21.56,-6.37 734.39,-5.94"/>
        <lane id="E1_2" index="2" speed="13.89" length="750.00" shape="21.56,-3.17 734.39,-2.74"/>
        <lane id="E1_3" index="3" speed="13.89" length="750.00" shape="21.55,0.03 734.39,0.46"/>
    </edge>
    <edge id="E2" from="J1" to="J3" priority="-1" length="750.00">
        <lane id="E2_0" index="0" speed="13.89" length="750.00" shape="15.94,18.43 15.64,741.42"/>
        <lane id="E2_1" index="1" speed="13.89" length="750.00" shape="12.74,18.43 12.44,741.42"/>
        <lane id="E2_2" index="2" speed="13.89" length="750.00" shape="9.54,18.43 9.24,741.42"/>
        <lane id="E2_3" index="3" speed="13.89" length="750.00" shape="6.34,18.43 6.04,741.42"/>
    </edge>
    <edge id="E3" from="J1" to="J4" priority="-1" length="750.00">
        <lane id="E3_0" index="0" speed="13.89" length="750.00" shape="-6.45,-15.18 -6.36,-690.30"/>
        <lane id="E3_1" index="1" speed="13.89" length="750.00" shape="-3.25,-15.18 -3.16,-690.30"/>
        <lane id="E3_2" index="2" speed="13.89" length="750.00" shape="-0.05,-15.18 0.04,-690.30"/>
        <lane id="E3_3" index="3" speed="13.89" length="750.00" shape="3.15,-15.18 3.24,-690.30"/>
    </edge>

    <tlLogic id="J1" type="static" programID="0" offset="0">
        <phase duration="33" state="rrrrrGGGGrrrrrrGGGGr"/>
        <phase duration="3"  state="rrrrryyyyrrrrrryyyyr"/>
        <phase duration="6"  state="rrrrrrrrrGrrrrrrrrrG"/>
        <phase duration="3"  state="rrrrrrrrryrrrrrrrrry"/>
        <phase duration="33" state="GGGGrrrrrrGGGGrrrrrr"/>
        <phase duration="3"  state="yyyyrrrrrryyyyrrrrrr"/>
        <phase duration="6"  state="rrrrGrrrrrrrrrGrrrrr"/>
        <phase duration="3"  state="rrrryrrrrrrrrryrrrrr"/>
    </tlLogic>

    <junction id="J0" type="dead_end" x="-781.76" y="1.65" incLanes="-E0_0 -E0_1 -E0_2 -E0_3" intLanes="" shape="-781.76,1.65 -781.76,14.45 -781.76,1.65"/>
    <junction id="J1" type="traffic_light" x="4.75" y="1.62" incLanes="-E1_0 -E1_1 -E1_2 -E1_3 -E3_0 -E3_1 -E3_2 -E3_3 E0_0 E0_1 E0_2 E0_3 -E2_0 -E2_1 -E2_2 -E2_3" intLanes=":J1_0_0 :J1_1_0 :J1_1_1 :J1_1_2 :J1_4_0 :J1_5_0 :J1_6_0 :J1_6_1 :J1_6_2 :J1_9_0 :J1_10_0 :J1_11_0 :J1_11_1 :J1_11_2 :J1_14_0 :J1_15_0 :J1_16_0 :J1_16_1 :J1_16_2 :J1_19_0" shape="21.54,14.43 21.56,-11.17 19.33,-11.62 18.55,-12.17 18.00,-12.95 17.66,-13.95 17.55,-15.18 -8.05,-15.18 -8.49,-12.96 -9.05,-12.18 -9.83,-11.62 -10.83,-11.29 -12.06,-11.18 -12.06,14.42 -9.83,14.87 -9.06,15.42 -8.50,16.20 -8.17,17.20 -8.06,18.42 17.54,18.43 17.99,16.21 18.54,15.43 19.32,14.87 20.32,14.54">
        <request index="0"  response="00000000000111000000" foes="00000000000111000000" cont="0"/>
        <request index="1"  response="11111000000111000000" foes="11111100000111000000" cont="0"/>
        <request index="2"  response="11111000000111000000" foes="11111100000111000000" cont="0"/>
        <request index="3"  response="11111000000111000000" foes="11111100000111000000" cont="0"/>
        <request index="4"  response="10000011101111000000" foes="10000011101111000000" cont="0"/>
        <request index="5"  response="00000000000000000000" foes="00000011100000000000" cont="0"/>
        <request index="6"  response="00000000000000000000" foes="10000011100000011111" cont="0"/>
        <request index="7"  response="00000000000000000000" foes="10000011100000011111" cont="0"/>
        <request index="8"  response="00000000000000000000" foes="10000011100000011111" cont="0"/>
        <request index="9"  response="01110000000000000000" foes="01110111100000010000" cont="0"/>
        <request index="10" response="01110000000000000000" foes="01110000000000000000" cont="0"/>
        <request index="11" response="01110000001111100000" foes="01110000001111110000" cont="0"/>
        <request index="12" response="01110000001111100000" foes="01110000001111110000" cont="0"/>
        <request index="13" response="01110000001111100000" foes="01110000001111110000" cont="0"/>
        <request index="14" response="11110000001000001110" foes="11110000001000001110" cont="0"/>
        <request index="15" response="00000000000000000000" foes="00000000000000001110" cont="0"/>
        <request index="16" response="00000000000000000000" foes="00000111111000001110" cont="0"/>
        <request index="17" response="00000000000000000000" foes="00000111111000001110" cont="0"/>
        <request index="18" response="00000000000000000000" foes="00000111111000001110" cont="0"/>
        <request index="19" response="00000000000111000000" foes="00000100000111011110" cont="0"/>
    </junction>
    <junction id="J2" type="dead_end" x="734.39" y="2.06" incLanes="E1_0 E1_1 E1_2 E1_3" intLanes="" shape="734.39,2.06 734.40,-10.74 734.39,2.06"/>
    <junction id="J3" type="dead_end" x="4.44" y="741.42" incLanes="E2_0 E2_1 E2_2 E2_3" intLanes="" shape="4.44,741.42 17.24,741.43 4.44,741.42"/>
    <junction id="J4" type="dead_end" x="4.84" y="-690.30" incLanes="E3_0 E3_1 E3_2 E3_3" intLanes="" shape="4.84,-690.30 -7.96,-690.30 4.84,-690.30"/>

    <connection from="-E1" to="E2" fromLane="0" toLane="0" via=":J1_0_0" tl="J1" linkIndex="0" dir="r" state="o"/>
    <connection from="-E1" to="-E0" fromLane="0" toLane="0" via=":J1_1_0" tl="J1" linkIndex="1" dir="s" state="o"/>
    <connection from="-E1" to="-E0" fromLane="1" toLane="1" via=":J1_1_1" tl="J1" linkIndex="2" dir="s" state="o"/>
    <connection from="-E1" to="-E0" fromLane="2" toLane="2" via=":J1_1_2" tl="J1" linkIndex="3" dir="s" state="o"/>
    <connection from="-E1" to="E3" fromLane="3" toLane="3" via=":J1_4_0" tl="J1" linkIndex="4" dir="l" state="o"/>
    <connection from="-E2" to="-E0" fromLane="0" toLane="0" via=":J1_15_0" tl="J1" linkIndex="15" dir="r" state="O"/>
    <connection from="-E2" to="E3" fromLane="0" toLane="0" via=":J1_16_0" tl="J1" linkIndex="16" dir="s" state="O"/>
    <connection from="-E2" to="E3" fromLane="1" toLane="1" via=":J1_16_1" tl="J1" linkIndex="17" dir="s" state="O"/>
    <connection from="-E2" to="E3" fromLane="2" toLane="2" via=":J1_16_2" tl="J1" linkIndex="18" dir="s" state="O"/>
    <connection from="-E2" to="E1" fromLane="3" toLane="3" via=":J1_19_0" tl="J1" linkIndex="19" dir="l" state="o"/>
    <connection from="-E3" to="E1" fromLane="0" toLane="0" via=":J1_5_0" tl="J1" linkIndex="5" dir="r" state="O"/>
    <connection from="-E3" to="E2" fromLane="0" toLane="0" via=":J1_6_0" tl="J1" linkIndex="6" dir="s" state="O"/>
    <connection from="-E3" to="E2" fromLane="1" toLane="1" via=":J1_6_1" tl="J1" linkIndex="7" dir="s" state="O"/>
    <connection from="-E3" to="E2" fromLane="2" toLane="2" via=":J1_6_2" tl="J1" linkIndex="8" dir="s" state="O"/>
    <connection from="-E3" to="-E0" fromLane="3" toLane="3" via=":J1_9_0" tl="J1" linkIndex="9" dir="l" state="o"/>
    <connection from="E0" to="E3" fromLane="0" toLane="0" via=":J1_10_0" tl="J1" linkIndex="10" dir="r" state="o"/>
    <connection from="E0" to="E1" fromLane="0" toLane="0" via=":J1_11_0" tl="J1" linkIndex="11" dir="s" state="o"/>
    <connection from="E0" to="E1" fromLane="1" toLane="1" via=":J1_11_1" tl="J1" linkIndex="12" dir="s" state="o"/>
    <connection from="E0" to="E1" fromLane="2" toLane="2" via=":J1_11_2" tl="J1" linkIndex="13" dir="s" state="o"/>
    <connection from="E0" to="E2" fromLane="3" toLane="3" via=":J1_14_0" tl="J1" linkIndex="14" dir="l" state="o"/>

    <connection from=":J1_0" to="E2" fromLane="0" toLane="0" dir="r" state="M"/>
    <connection from=":J1_1" to="-E0" fromLane="0" toLane="0" dir="s" state="M"/>
    <connection from=":J1_1" to="-E0" fromLane="1" toLane="1" dir="s" state="M"/>
    <connection from=":J1_1" to="-E0" fromLane="2" toLane="2" dir="s" state="M"/>
    <connection from=":J1_4" to="E3" fromLane="0" toLane="3" dir="l" state="M"/>
    <connection from=":J1_5" to="E1" fromLane="0" toLane="0" dir="r" state="M"/>
    <connection from=":J1_6" to="E2" fromLane="0" toLane="0" dir="s" state="M"/>
    <connection from=":J1_6" to="E2" fromLane="1" toLane="1" dir="s" state="M"/>
    <connection from=":J1_6" to="E2" fromLane="2" toLane="2" dir="s" state="M"/>
    <connection from=":J1_9" to="-E0" fromLane="0" toLane="3" dir="l" state="M"/>
    <connection from=":J1_10" to="E3" fromLane="0" toLane="0" dir="r" state="M"/>
    <connection from=":J1_11" to="E1" fromLane="0" toLane="0" dir="s" state="M"/>
    <connection from=":J1_11" to="E1" fromLane="1" toLane="1" dir="s" state="M"/>
    <connection from=":J1_11" to="E1" fromLane="2" toLane="2" dir="s" state="M"/>
    <connection from=":J1_14" to="E2" fromLane="0" toLane="3" dir="l" state="M"/>
    <connection from=":J1_15" to="-E0" fromLane="0" toLane="0" dir="r" state="M"/>
    <connection from=":J1_16" to="E3" fromLane="0" toLane="0" dir="s" state="M"/>
    <connection from=":J1_16" to="E3" fromLane="1" toLane="1" dir="s" state="M"/>
    <connection from=":J1_16" to="E3" fromLane="2" toLane="2" dir="s" state="M"/>
    <connection from=":J1_19" to="E1" fromLane="0" toLane="3" dir="l" state="M"/>

</net>
