<?xml version="1.0" encoding="UTF-8"?>

<!-- generated on 2024-10-28 00:48:27 by Eclipse SUMO sumo Version v1_21_0+0046-5fccd803077
-->

<sumoConfiguration xmlns:xsi="http://www.w3.org/2001/XMLSchema-instance" xsi:noNamespaceSchemaLocation="http://sumo.dlr.de/xsd/sumoConfiguration.xsd">

    <input>
        <net-file value="design.net.xml"/>
        <route-files value="Design.rou.xml"/>
    </input>

</sumoConfiguration>
